[General]
#####Config#####
# sets the transport to "HomaTransport" and the parameters for that transport.

# simulation global configuration options
simtime-scale = -15
sim-time-limit = 100000ms
cmdenv-express-mode = true
warmup-period = 0ms
network = DcnTopo
num-rngs = 1

##### Don't change the following config line. parseXMLConfig() ######
#### function in WorkloadSynthesizer class depends on this line. ####
**.host[*].trafficGeneratorApp[0].destAddresses = moduleListByPath("**.host[*]")

############# per module configuration ###############
# Note: if you modified any of the parameters under this section make sure to
# reflect appropriate changes to IPAddress assignment section in
# IPv4Configurator section in config.xml.
DcnTopo.numServersPerTor = ${numServersPerTor = 16}
DcnTopo.numTors = ${numTors = 9}
DcnTopo.fabricLinkSpeed = ${fabricLinkSpeed = 400Gbps}
DcnTopo.nicLinkSpeed = ${nicLinkSpeed = 100Gbps}
DcnTopo.edgeLinkDelay = ${edgeLinkDelay = 0.65us}
DcnTopo.fabricLinkDelay = ${fabricLinkDelay = 0.65us}
DcnTopo.hostSwTurnAroundTime = ${hostSwTurnAroundTime = 0.0000us}
DcnTopo.hostNicSxThinkTime = ${hostNicSxThinkTime = 0.000us}
DcnTopo.switchFixDelay = ${switchFixDelay = 0.0us}
DcnTopo.isFabricCutThrough = ${isFabricCutThrough = false}
**.host[*].numTrafficGeneratorApp = 1
**.eth[*].queueType = "DropTailQueue"
**.eth[*].queue.**.frameCapacity = 375
######################## Homa Transport Parameters ###############################
#rttBytes is computed as sending one full packet in one way and a grant in the other way.
**.host[*].**.rttBytes = ${RTT=33500} B ##24000B is the rttBytes (ie. rtt*nicLinkSpeed).
**.host[*].transportSchemeType = "${transportSchemeType = HomaTransport}"
**.host[*].transportScheme.isRoundRobinScheduler = ${isRoundRobinScheduler = false}
**.host[*].transportScheme.useUnschRateInScheduler = ${useUnschRateInScheduler = false}
**.host[*].transportScheme.maxOutstandingRecvBytes = ${maxOutstandingRecvBytes = $RTT} B
# Possible string values: STATIC_CBF_UNIFORM, STATIC_CDF_UNIFORM, STATIC_CBF_GRADUATED
**.host[*].transportScheme.unschedPrioResolutionMode = "${unschedPrioResolutionMode = STATIC_CBF_GRADUATED}"
# Possible values 1.0/2.0, 2.0/3.0, 4.0/3.0. Lower number, mean higher priorities carry more traffic
**.host[*].transportScheme.unschedPrioUsageWeight = ${unschedPrioUsageWeight = 1}
**.host[*].transportScheme.cbfCapMsgSize = "${cbfCapMsgSize = $RTT}"
**.host[*].transportScheme.boostTailBytesPrio = "${boostTailBytesPrio = $RTT}"
**.host[*].transportScheme.defaultReqBytes = ${defaultReqBytes = 50 }B
**.host[*].transportScheme.defaultUnschedBytes = ${defaultUnschedBytes = 33500 }B
**.host[*].transportScheme.senderScheme = "${senderScheme = SRBF}" #Possible values: OBSERVE_PKT_PRIOS, SRBF
**.host[*].transportScheme.accountForGrantTraffic = ${accountForGrantTraffic = true}
**.host[*].transportScheme.linkCheckBytes = ${linkCheckBytes = -1}B
**.host[*].transportScheme.localPort = 2222
**.host[*].transportScheme.destPort = 2222
**.host[*].transportScheme.windowTimeout = 1
**.host[*].transportScheme.finishTimeout = 1
**.eth[*].**.transportType = "HomaTransport"
**.realLoadFactor = ${rlf=0.5, 0.6, 0.7, 0.8, 0.9}
#result-dir = results/testing/unschedPrio/LoadFactor__${rlf}--UnschedResolutionMode__${unschedPrioResolutionMode}--boostTailBytesPrio__${boostTailBytesPrio}


[Config RecordAllStats]
#enable vector recording for globalListener
**.globalListener.**.result-recording-modes = all
**.globalListener.**.vector-recording = true

#disable vector recording for all other modules
**.vector-recording = false

#WorkloadSynthesizer stats, only non templated ones are enabled
**.trafficGeneratorApp[*].sentMsg.result-recording-modes = all
**.trafficGeneratorApp[*].rcvdMsg.result-recording-modes = all
**.trafficGeneratorApp[*].msgE2EDelay.result-recording-modes = all
#**.trafficGeneratorApp[*].**.result-recording-modes = all

#HomaTransport stats
**.transportScheme.**.result-recording-modes = all

#EthernetMac stats
**.mac.txPk.result-recording-modes = all
**.mac.rxPkOk.result-recording-modes = all
**.mac.frameRcvdTimeStamptAtMAC.result-recording-modes = all
**.mac.frameSentTimeStamptAtMAC.result-recording-modes = all

#DropTailQueue stats
**.dataQueue.rcvdPk.result-recording-modes = all
**.dataQueue.queueLength.result-recording-modes = all
**.dataQueue.queueByteLength.result-recording-modes = all
**.dataQueue.queueingTime.result-recording-modes = all
**.dataQueue.requestQueueingTime.result-recording-modes = all
**.dataQueue.grantQueueingTime.result-recording-modes = all
**.dataQueue.schedDataQueueingTime.result-recording-modes = all
**.dataQueue.unschedDataQueueingTime.result-recording-modes = all

# Exclude every other stats from recording
**.result-recording-modes = -

[Config WorkloadDCTCP]
extends = RecordAllStats
**.host[*].trafficGeneratorApp[*].typename = "WorkloadSynthesizer"
**.host[*].**.workloadType = "${workloadType = PRESET_IN_FILE}"
**.host[*].trafficGeneratorApp[*].msgSizeRanges = "${msgSizeRanges =28840000}"
**.host[*].trafficGeneratorApp[*].loadFactor = ${loadFactor = $rlf}
**.host[*].trafficGeneratorApp[*].interArrivalDist = "${interArrivalDist = preset_in_file}"
**.host[*].trafficGeneratorApp[*].startTime = ${startTime = 0s}
**.host[*].trafficGeneratorApp[*].stopTime = ${stopTime = 4.76s, 3.96s, 3.40s, 2.97s, 2.64s ! rlf}
**.host[*].trafficGeneratorApp[*].workloadFile = "${workloadFile = fb_40/trace_homa_dctcp_5.txt.csv, fb_40/trace_homa_dctcp_6.txt.csv, fb_40/trace_homa_dctcp_7.txt.csv, fb_40/trace_homa_dctcp_8.txt.csv, fb_40/trace_homa_dctcp_9.txt.csv ! rlf}"
**.host[*].trafficGeneratorApp[*].resultFile = "${resultFile = fb_40/result_homa_dctcp_5.txt.csv, fb_40/result_homa_dctcp_6.txt.csv, fb_40/result_homa_dctcp_7.txt.csv, fb_40/result_homa_dctcp_8.txt.csv, fb_40/result_homa_dctcp_9.txt.csv ! rlf}"
seed-set = ${repetition}
seed-0-mt = ${seedInd = 0..4 ! rlf}
**.host[*].transportScheme.prioLevels = ${prioLevels = 8}
**.host[*].transportScheme.adaptiveSchedPrioLevels = ${adaptiveSchedPrioLevels = 7}
**.host[*].transportScheme.numSendersToKeepGranted = ${numSendersToKeepGranted = 7}
**.host[*].transportScheme.prioResolverPrioLevels = ${prioResolverPrioLevels = $prioLevels-$adaptiveSchedPrioLevels}
result-dir = results/manyReceivers/comparison/fb_40_${linkCheckBytes}
DcnTopo.QueueSizeFile = "${QueueSizeFile = fb_40/queue_size_dctcp_5.txt, fb_40/queue_size_dctcp_6.txt,fb_40/queue_size_dctcp_7.txt,fb_40/queue_size_dctcp_8.txt, fb_40/queue_size_dctcp_9.txt ! rlf}"

[Config WorkloadIMC10]
extends = RecordAllStats
**.host[*].trafficGeneratorApp[*].typename = "WorkloadSynthesizer"
**.host[*].**.workloadType = "${workloadType = PRESET_IN_FILE}"
**.host[*].trafficGeneratorApp[*].msgSizeRanges = "${msgSizeRanges =3038294}"
**.host[*].trafficGeneratorApp[*].loadFactor = ${loadFactor = $rlf}
**.host[*].trafficGeneratorApp[*].interArrivalDist = "${interArrivalDist = preset_in_file}"
**.host[*].trafficGeneratorApp[*].startTime = ${startTime = 0s}
**.host[*].trafficGeneratorApp[*].stopTime = ${stopTime = 0.56s, 0.46s, 0.40s, 0.35s, 0.31s ! rlf}
**.host[*].trafficGeneratorApp[*].workloadFile = "${workloadFile = fb_40/trace_homa_aditya_5.txt.csv, fb_40/trace_homa_aditya_6.txt.csv, fb_40/trace_homa_aditya_7.txt.csv, fb_40/trace_homa_aditya_8.txt.csv, fb_40/trace_homa_aditya_9.txt.csv ! rlf}"
**.host[*].trafficGeneratorApp[*].resultFile = "${resultFile = fb_40/result_homa_aditya_5.txt.csv, fb_40/result_homa_aditya_6.txt.csv, fb_40/result_homa_aditya_7.txt.csv, fb_40/result_homa_aditya_8.txt.csv, fb_40/result_homa_aditya_9.txt.csv ! rlf}"
seed-set = ${repetition}
seed-0-mt = ${seedInd = 0..4 ! rlf}
**.host[*].transportScheme.prioLevels = ${prioLevels = 8}
**.host[*].transportScheme.adaptiveSchedPrioLevels = ${adaptiveSchedPrioLevels = 7}
**.host[*].transportScheme.numSendersToKeepGranted = ${numSendersToKeepGranted = 7}
**.host[*].transportScheme.prioResolverPrioLevels = ${prioResolverPrioLevels = $prioLevels-$adaptiveSchedPrioLevels}
result-dir = results/manyReceivers/comparison/fb_40_${linkCheckBytes}
DcnTopo.QueueSizeFile = "${QueueSizeFile = fb_40/queue_size_aditya_5.txt, fb_40/queue_size_aditya_6.txt,fb_40/queue_size_aditya_7.txt,fb_40/queue_size_aditya_8.txt, fb_40/queue_size_aditya_9.txt ! rlf}"

[Config WorkloadDataMining]
extends = RecordAllStats
**.host[*].trafficGeneratorApp[*].typename = "WorkloadSynthesizer"
**.host[*].**.workloadType = "${workloadType = PRESET_IN_FILE}"
**.host[*].trafficGeneratorApp[*].msgSizeRanges = "${msgSizeRanges =961333814}"
**.host[*].trafficGeneratorApp[*].loadFactor = ${loadFactor = $rlf}
**.host[*].trafficGeneratorApp[*].interArrivalDist = "${interArrivalDist = preset_in_file}"
**.host[*].trafficGeneratorApp[*].startTime = ${startTime = 0s}
**.host[*].trafficGeneratorApp[*].stopTime = ${stopTime = 21.33s, 17.77s, 15.23s, 13.33s, 11.85s ! rlf}
**.host[*].trafficGeneratorApp[*].workloadFile = "${workloadFile = fb_40/trace_homa_datamining_5.txt.csv, fb_40/trace_homa_datamining_6.txt.csv, fb_40/trace_homa_datamining_7.txt.csv, fb_40/trace_homa_datamining_8.txt.csv, fb_40/trace_homa_datamining_9.txt.csv ! rlf}"
**.host[*].trafficGeneratorApp[*].resultFile = "${resultFile = fb_40/result_homa_datamining_5.txt.csv, result_homa_datamining_6.txt.csv, fb_40/result_homa_datamining_7.txt.csv, fb_40/result_homa_datamining_8.txt.csv, fb_40/result_homa_datamining_9.txt.csv ! rlf}"
seed-set = ${repetition}
seed-0-mt = ${seedInd = 0..4 ! rlf}
**.host[*].transportScheme.prioLevels = ${prioLevels = 8}
**.host[*].transportScheme.adaptiveSchedPrioLevels = ${adaptiveSchedPrioLevels = 7}
**.host[*].transportScheme.numSendersToKeepGranted = ${numSendersToKeepGranted = 7}
**.host[*].transportScheme.prioResolverPrioLevels = ${prioResolverPrioLevels = $prioLevels-$adaptiveSchedPrioLevels}
result-dir = results/manyReceivers/comparison/fb_40_${linkCheckBytes}
DcnTopo.QueueSizeFile = "${QueueSizeFile = fb_40/queue_size_datamining_5.txt, fb_40/queue_size_datamining_6.txt,fb_40/queue_size_datamining_7.txt,fb_40/queue_size_datamining_8.txt, fb_40/queue_size_datamining9.txt ! rlf}"

[Config Test]
extends = RecordAllStats
**.host[*].trafficGeneratorApp[*].typename = "WorkloadSynthesizer"
**.host[*].**.workloadType = "${workloadType = PRESET_IN_FILE}"
**.host[*].trafficGeneratorApp[*].msgSizeRanges = "${msgSizeRanges =961333814}"
**.host[*].trafficGeneratorApp[*].loadFactor = ${loadFactor = 0.5}
**.host[*].trafficGeneratorApp[*].interArrivalDist = "${interArrivalDist = preset_in_file}"
**.host[*].trafficGeneratorApp[*].startTime = ${startTime = 0s}
**.host[*].trafficGeneratorApp[*].stopTime = ${stopTime = 2s}
**.host[*].trafficGeneratorApp[*].workloadFile = "${workloadFile = trace_homa_incast_10.txt.csv, fb_40/trace_homa_incast_100.txt.csv}"
**.host[*].trafficGeneratorApp[*].resultFile = "${resultFile = trace__incast_10.txt.csv, fb_40/trace__incast_100.txt.csv ! workloadFile}"
DcnTopo.QueueSizeFile = "${QueueSizeFile = queue_size_incast_10.txt, queue_size_incast_100.txt ! workloadFile}"
seed-set = ${repetition}
seed-0-mt = ${seedInd = 0..4 ! workloadFile}
**.host[*].transportScheme.prioLevels = ${prioLevels = 8}
**.host[*].transportScheme.adaptiveSchedPrioLevels = ${adaptiveSchedPrioLevels = 7}
**.host[*].transportScheme.numSendersToKeepGranted = ${numSendersToKeepGranted = 7}
**.host[*].transportScheme.prioResolverPrioLevels = ${prioResolverPrioLevels = $prioLevels-$adaptiveSchedPrioLevels}
result-dir = results/manyReceivers/comparison/test__${linkCheckBytes}
